/*--------------------------------*- C++ -*----------------------------------*\
| =========                 |                                                 |
| \\      /  F ield         | OpenFOAM: The Open Source CFD Toolbox           |
|  \\    /   O peration     | Version:  2.3.0                                 |
|   \\  /    A nd           | Web:      www.OpenFOAM.org                      |
|    \\/     M anipulation  |                                                 |
\*---------------------------------------------------------------------------*/
FoamFile
{
    version     2.0;
    format      ascii;
    class       dictionary;
    location    "system";
    object      fvSolution;
}
// * * * * * * * * * * * * * * * * * * * * * * * * * * * * * * * * * * * * * //

solvers
{
    p
    {
    solver          PCG;
	preconditioner 	DIC;
	tolerance	    1e-20;
    relTol		    0;
    }

    "(U|k|omega|R|nuTilda)"
    {
    solver          PBiCG;
    preconditioner  DILU;
    tolerance       1e-20;
    relTol          0;
    }
}

SIMPLE
{
    nNonOrthogonalCorrectors 0;
    pRefCell 0;
    pRefValue 0;
    residualControl
    {
        p               1e-6;
        U               1e-6;
        "(k|epsilon|omega)" 1e-6;
    }
}

relaxationFactors
{
    fields
    {
        p               0.3;
    }
    equations
    {
        U               0.7;
        k               0.7;
        omega           0.7;
        R               0.7;
        nuTilda         0.7;
    }
}


// ************************************************************************* //
