/*--------------------------------*- C++ -*----------------------------------*\
| =========                 |                                                 |
| \\      /  F ield         | OpenFOAM: The Open Source CFD Toolbox           |
|  \\    /   O peration     | Version:  2.3.1                                 |
|   \\  /    A nd           | Web:      www.OpenFOAM.org                      |
|    \\/     M anipulation  |                                                 |
\*---------------------------------------------------------------------------*/
FoamFile
{
    version     2.0;
    format      ascii;
    class       volScalarField;
    object      nut;
}
// * * * * * * * * * * * * * * * * * * * * * * * * * * * * * * * * * * * * * //

dimensions      [0 2 -1 0 0 0 0];

internalField   uniform 2.92e-6;//0.0012247;//0.021479;//0.019239;//0.0062547;

boundaryField
{
    inlet
    {
        //type            freestream;
        //freestreamValue uniform 0.0062547;
        type            calculated;//fixedValue;
        value           uniform 2.92e-6;//0.0012247;//0.021479;//0.019239;//0.0062547;
    }

    outlet
    {
        //type            freestream;
        //freestreamValue uniform 0.0062547;
        type            zeroGradient;
    }
    top
    {
        //type            freestream;
        //freestreamValue uniform 0.0062547;
        type            zeroGradient;
    }
    slipsurface
    {
        type            symmetryPlane;//slip;
    }
    bottom
    {
        type            fixedValue;//nutUSpaldingWallFunction;
        value           uniform 0;
    }

    frontAndBack
    {
        type            empty;
    }
}

// ************************************************************************* //
